<?xml version="1.0" encoding="UTF-8"?>

<!-- generated on 2026-04-19T09:57:09.395309-05:00 by Eclipse SUMO duarouter 1.26.0
<duarouterConfiguration xmlns:xsi="http://www.w3.org/2001/XMLSchema-instance" xsi:noNamespaceSchemaLocation="http://sumo.dlr.de/xsd/duarouterConfiguration.xsd">

    <input>
        <net-file value="sumo_simulation\sumo_network.net.xml"/>
        <route-files value="sumo_simulation\sumo_routes.rou_trips.xml"/>
    </input>

    <output>
        <output-file value="sumo_simulation\sumo_routes.rou.xml"/>
    </output>

    <processing>
        <remove-loops value="true"/>
        <repair value="true"/>
    </processing>

    <report>
        <ignore-errors value="true"/>
    </report>

</duarouterConfiguration>
-->

<routes xmlns:xsi="http://www.w3.org/2001/XMLSchema-instance" xsi:noNamespaceSchemaLocation="http://sumo.dlr.de/xsd/routes_file.xsd">
    <vehicle id="veh_0000" depart="0.00" departLane="best" departSpeed="max">
        <route edges="8889354#0 681744359#1"/>
    </vehicle>
    <vehicle id="veh_0001" depart="10.29" departLane="best" departSpeed="max">
        <route edges="29382500#0 681744358#1"/>
    </vehicle>
    <vehicle id="veh_0002" depart="17.82" departLane="best" departSpeed="max">
        <route edges="69024648#0 681744358#1"/>
    </vehicle>
    <vehicle id="veh_0003" depart="27.52" departLane="best" departSpeed="max">
        <route edges="29382500#0 765539624#1"/>
    </vehicle>
    <vehicle id="veh_0004" depart="37.60" departLane="best" departSpeed="max">
        <route edges="29382500#0 765539624#1"/>
    </vehicle>
    <vehicle id="veh_0005" depart="46.37" departLane="best" departSpeed="max">
        <route edges="681744366#0 90178163#1"/>
    </vehicle>
    <vehicle id="veh_0006" depart="56.92" departLane="best" departSpeed="max">
        <route edges="69024648#0 681744358#1"/>
    </vehicle>
    <vehicle id="veh_0007" depart="61.91" departLane="best" departSpeed="max">
        <route edges="8889354#0 681744359#1"/>
    </vehicle>
    <vehicle id="veh_0008" depart="70.67" departLane="best" departSpeed="max">
        <route edges="69024648#0 681744358#1"/>
    </vehicle>
    <vehicle id="veh_0009" depart="83.11" departLane="best" departSpeed="max">
        <route edges="29382500#0 681744359#1"/>
    </vehicle>
    <vehicle id="veh_0010" depart="91.84" departLane="best" departSpeed="max">
        <route edges="69024648#0 90178163#1"/>
    </vehicle>
    <vehicle id="veh_0011" depart="101.10" departLane="best" departSpeed="max">
        <route edges="69024648#0 681744358#1"/>
    </vehicle>
    <vehicle id="veh_0012" depart="112.24" departLane="best" departSpeed="max">
        <route edges="69024648#0 681744358#1"/>
    </vehicle>
    <vehicle id="veh_0013" depart="116.17" departLane="best" departSpeed="max">
        <route edges="681744366#0 681744358#1"/>
    </vehicle>
    <vehicle id="veh_0014" depart="125.55" departLane="best" departSpeed="max">
        <route edges="29382500#0 765539624#1"/>
    </vehicle>
    <vehicle id="veh_0015" depart="135.98" departLane="best" departSpeed="max">
        <route edges="29382500#0 765539624#1"/>
    </vehicle>
    <vehicle id="veh_0016" depart="145.73" departLane="best" departSpeed="max">
        <route edges="8889354#0 681744359#1"/>
    </vehicle>
    <vehicle id="veh_0017" depart="158.53" departLane="best" departSpeed="max">
        <route edges="29382500#0 765539624#1"/>
    </vehicle>
    <vehicle id="veh_0018" depart="162.78" departLane="best" departSpeed="max">
        <route edges="8889354#0 681744359#1"/>
    </vehicle>
    <vehicle id="veh_0019" depart="173.27" departLane="best" departSpeed="max">
        <route edges="8889354#0 681744359#1"/>
    </vehicle>
    <vehicle id="veh_0020" depart="183.57" departLane="best" departSpeed="max">
        <route edges="69024648#0 90178163#1"/>
    </vehicle>
    <vehicle id="veh_0021" depart="194.14" departLane="best" departSpeed="max">
        <route edges="8889354#0 765539624#1"/>
    </vehicle>
    <vehicle id="veh_0022" depart="200.34" departLane="best" departSpeed="max">
        <route edges="29382500#0 765539624#1"/>
    </vehicle>
    <vehicle id="veh_0023" depart="213.53" departLane="best" departSpeed="max">
        <route edges="29382500#0 765539624#1"/>
    </vehicle>
    <vehicle id="veh_0024" depart="220.84" departLane="best" departSpeed="max">
        <route edges="69024648#0 681744358#1"/>
    </vehicle>
    <vehicle id="veh_0025" depart="228.74" departLane="best" departSpeed="max">
        <route edges="681744366#0 681744359#1"/>
    </vehicle>
    <vehicle id="veh_0026" depart="238.56" departLane="best" departSpeed="max">
        <route edges="29382500#0 765539624#1"/>
    </vehicle>
    <vehicle id="veh_0027" depart="249.88" departLane="best" departSpeed="max">
        <route edges="29382500#0 765539624#1"/>
    </vehicle>
    <vehicle id="veh_0028" depart="259.68" departLane="best" departSpeed="max">
        <route edges="681744366#0 90178163#1"/>
    </vehicle>
    <vehicle id="veh_0029" depart="262.74" departLane="best" departSpeed="max">
        <route edges="681744366#0 90178163#1"/>
    </vehicle>
    <vehicle id="veh_0030" depart="276.68" departLane="best" departSpeed="max">
        <route edges="29382500#0 765539624#1"/>
    </vehicle>
    <vehicle id="veh_0031" depart="283.21" departLane="best" departSpeed="max">
        <route edges="681744366#0 90178163#1"/>
    </vehicle>
    <vehicle id="veh_0032" depart="296.15" departLane="best" departSpeed="max">
        <route edges="69024648#0 681744358#1"/>
    </vehicle>
    <vehicle id="veh_0033" depart="303.71" departLane="best" departSpeed="max">
        <route edges="69024648#0 681744358#1"/>
    </vehicle>
    <vehicle id="veh_0034" depart="309.96" departLane="best" departSpeed="max">
        <route edges="8889354#0 681744359#1"/>
    </vehicle>
    <vehicle id="veh_0035" depart="320.19" departLane="best" departSpeed="max">
        <route edges="8889354#0 681744359#1"/>
    </vehicle>
    <vehicle id="veh_0036" depart="332.18" departLane="best" departSpeed="max">
        <route edges="681744366#0 681744359#1"/>
    </vehicle>
    <vehicle id="veh_0037" depart="336.87" departLane="best" departSpeed="max">
        <route edges="29382500#0 765539624#1"/>
    </vehicle>
    <vehicle id="veh_0038" depart="346.80" departLane="best" departSpeed="max">
        <route edges="69024648#0 765539624#1"/>
    </vehicle>
    <vehicle id="veh_0039" depart="355.03" departLane="best" departSpeed="max">
        <route edges="8889354#0 681744359#1"/>
    </vehicle>
    <vehicle id="veh_0040" depart="368.20" departLane="best" departSpeed="max">
        <route edges="8889354#0 681744359#1"/>
    </vehicle>
    <vehicle id="veh_0041" depart="374.44" departLane="best" departSpeed="max">
        <route edges="681744366#0 90178163#1"/>
    </vehicle>
    <vehicle id="veh_0042" depart="387.16" departLane="best" departSpeed="max">
        <route edges="29382500#0 681744359#1"/>
    </vehicle>
    <vehicle id="veh_0043" depart="391.06" departLane="best" departSpeed="max">
        <route edges="69024648#0 681744358#1"/>
    </vehicle>
    <vehicle id="veh_0044" depart="400.40" departLane="best" departSpeed="max">
        <route edges="69024648#0 765539624#1"/>
    </vehicle>
    <vehicle id="veh_0045" depart="413.88" departLane="best" departSpeed="max">
        <route edges="681744366#0 90178163#1"/>
    </vehicle>
    <vehicle id="veh_0046" depart="421.22" departLane="best" departSpeed="max">
        <route edges="8889354#0 681744359#1"/>
    </vehicle>
    <vehicle id="veh_0047" depart="432.92" departLane="best" departSpeed="max">
        <route edges="681744366#0 90178163#1"/>
    </vehicle>
    <vehicle id="veh_0048" depart="439.95" departLane="best" departSpeed="max">
        <route edges="681744366#0 90178163#1"/>
    </vehicle>
    <vehicle id="veh_0049" depart="447.65" departLane="best" departSpeed="max">
        <route edges="8889354#0 681744359#1"/>
    </vehicle>
    <vehicle id="veh_0050" depart="457.62" departLane="best" departSpeed="max">
        <route edges="69024648#0 90178163#1"/>
    </vehicle>
    <vehicle id="veh_0051" depart="465.41" departLane="best" departSpeed="max">
        <route edges="681744366#0 90178163#1"/>
    </vehicle>
    <vehicle id="veh_0052" depart="474.61" departLane="best" departSpeed="max">
        <route edges="681744366#0 90178163#1"/>
    </vehicle>
    <vehicle id="veh_0053" depart="486.34" departLane="best" departSpeed="max">
        <route edges="29382500#0 765539624#1"/>
    </vehicle>
    <vehicle id="veh_0054" depart="496.96" departLane="best" departSpeed="max">
        <route edges="29382500#0 681744359#1"/>
    </vehicle>
    <vehicle id="veh_0055" depart="504.90" departLane="best" departSpeed="max">
        <route edges="29382500#0 765539624#1"/>
    </vehicle>
    <vehicle id="veh_0056" depart="515.77" departLane="best" departSpeed="max">
        <route edges="29382500#0 765539624#1"/>
    </vehicle>
    <vehicle id="veh_0057" depart="523.96" departLane="best" departSpeed="max">
        <route edges="681744366#0 90178163#1"/>
    </vehicle>
    <vehicle id="veh_0058" depart="528.71" departLane="best" departSpeed="max">
        <route edges="69024648#0 681744358#1"/>
    </vehicle>
    <vehicle id="veh_0059" depart="540.25" departLane="best" departSpeed="max">
        <route edges="681744366#0 90178163#1"/>
    </vehicle>
    <vehicle id="veh_0060" depart="552.72" departLane="best" departSpeed="max">
        <route edges="8889354#0 90178163#1"/>
    </vehicle>
    <vehicle id="veh_0061" depart="557.75" departLane="best" departSpeed="max">
        <route edges="29382500#0 765539624#1"/>
    </vehicle>
    <vehicle id="veh_0062" depart="565.95" departLane="best" departSpeed="max">
        <route edges="69024648#0 681744358#1"/>
    </vehicle>
    <vehicle id="veh_0063" depart="575.68" departLane="best" departSpeed="max">
        <route edges="681744366#0 90178163#1"/>
    </vehicle>
    <vehicle id="veh_0064" depart="585.89" departLane="best" departSpeed="max">
        <route edges="29382500#0 681744359#1"/>
    </vehicle>
    <vehicle id="veh_0065" depart="592.54" departLane="best" departSpeed="max">
        <route edges="69024648#0 681744358#1"/>
    </vehicle>
    <vehicle id="veh_0066" depart="607.59" departLane="best" departSpeed="max">
        <route edges="69024648#0 765539624#1"/>
    </vehicle>
    <vehicle id="veh_0067" depart="611.60" departLane="best" departSpeed="max">
        <route edges="69024648#0 765539624#1"/>
    </vehicle>
    <vehicle id="veh_0068" depart="622.27" departLane="best" departSpeed="max">
        <route edges="681744366#0 90178163#1"/>
    </vehicle>
    <vehicle id="veh_0069" depart="635.17" departLane="best" departSpeed="max">
        <route edges="29382500#0 765539624#1"/>
    </vehicle>
    <vehicle id="veh_0070" depart="640.93" departLane="best" departSpeed="max">
        <route edges="29382500#0 681744358#1"/>
    </vehicle>
    <vehicle id="veh_0071" depart="653.56" departLane="best" departSpeed="max">
        <route edges="681744366#0 681744359#1"/>
    </vehicle>
    <vehicle id="veh_0072" depart="657.33" departLane="best" departSpeed="max">
        <route edges="681744366#0 681744358#1"/>
    </vehicle>
    <vehicle id="veh_0073" depart="669.21" departLane="best" departSpeed="max">
        <route edges="29382500#0 681744359#1"/>
    </vehicle>
    <vehicle id="veh_0074" depart="675.02" departLane="best" departSpeed="max">
        <route edges="681744366#0 681744358#1"/>
    </vehicle>
    <vehicle id="veh_0075" depart="689.28" departLane="best" departSpeed="max">
        <route edges="681744366#0 90178163#1"/>
    </vehicle>
    <vehicle id="veh_0076" depart="693.49" departLane="best" departSpeed="max">
        <route edges="29382500#0 681744359#1"/>
    </vehicle>
    <vehicle id="veh_0077" depart="706.47" departLane="best" departSpeed="max">
        <route edges="29382500#0 765539624#1"/>
    </vehicle>
    <vehicle id="veh_0078" depart="717.01" departLane="best" departSpeed="max">
        <route edges="29382500#0 765539624#1"/>
    </vehicle>
    <vehicle id="veh_0079" depart="724.43" departLane="best" departSpeed="max">
        <route edges="29382500#0 765539624#1"/>
    </vehicle>
    <vehicle id="veh_0080" depart="732.97" departLane="best" departSpeed="max">
        <route edges="681744366#0 90178163#1"/>
    </vehicle>
    <vehicle id="veh_0081" depart="743.37" departLane="best" departSpeed="max">
        <route edges="69024648#0 681744358#1"/>
    </vehicle>
    <vehicle id="veh_0082" depart="752.25" departLane="best" departSpeed="max">
        <route edges="29382500#0 765539624#1"/>
    </vehicle>
    <vehicle id="veh_0083" depart="761.92" departLane="best" departSpeed="max">
        <route edges="29382500#0 765539624#1"/>
    </vehicle>
    <vehicle id="veh_0084" depart="772.66" departLane="best" departSpeed="max">
        <route edges="29382500#0 765539624#1"/>
    </vehicle>
    <vehicle id="veh_0085" depart="776.79" departLane="best" departSpeed="max">
        <route edges="69024648#0 681744358#1"/>
    </vehicle>
    <vehicle id="veh_0086" depart="790.23" departLane="best" departSpeed="max">
        <route edges="29382500#0 681744359#1"/>
    </vehicle>
    <vehicle id="veh_0087" depart="794.75" departLane="best" departSpeed="max">
        <route edges="69024648#0 681744358#1"/>
    </vehicle>
    <vehicle id="veh_0088" depart="806.82" departLane="best" departSpeed="max">
        <route edges="69024648#0 90178163#1"/>
    </vehicle>
    <vehicle id="veh_0089" depart="812.11" departLane="best" departSpeed="max">
        <route edges="69024648#0 90178163#1"/>
    </vehicle>
    <vehicle id="veh_0090" depart="825.48" departLane="best" departSpeed="max">
        <route edges="69024648#0 681744358#1"/>
    </vehicle>
    <vehicle id="veh_0091" depart="831.12" departLane="best" departSpeed="max">
        <route edges="69024648#0 681744358#1"/>
    </vehicle>
    <vehicle id="veh_0092" depart="841.29" departLane="best" departSpeed="max">
        <route edges="29382500#0 765539624#1"/>
    </vehicle>
    <vehicle id="veh_0093" depart="850.01" departLane="best" departSpeed="max">
        <route edges="8889354#0 90178163#1"/>
    </vehicle>
    <vehicle id="veh_0094" depart="861.00" departLane="best" departSpeed="max">
        <route edges="8889354#0 681744359#1"/>
    </vehicle>
    <vehicle id="veh_0095" depart="867.61" departLane="best" departSpeed="max">
        <route edges="69024648#0 765539624#1"/>
    </vehicle>
    <vehicle id="veh_0096" depart="876.21" departLane="best" departSpeed="max">
        <route edges="681744366#0 90178163#1"/>
    </vehicle>
    <vehicle id="veh_0097" depart="887.02" departLane="best" departSpeed="max">
        <route edges="8889354#0 90178163#1"/>
    </vehicle>
    <vehicle id="veh_0098" depart="897.25" departLane="best" departSpeed="max">
        <route edges="8889354#0 681744359#1"/>
    </vehicle>
    <vehicle id="veh_0099" depart="909.33" departLane="best" departSpeed="max">
        <route edges="29382500#0 765539624#1"/>
    </vehicle>
    <vehicle id="veh_0100" depart="918.18" departLane="best" departSpeed="max">
        <route edges="69024648#0 681744358#1"/>
    </vehicle>
    <vehicle id="veh_0101" depart="922.80" departLane="best" departSpeed="max">
        <route edges="681744366#0 90178163#1"/>
    </vehicle>
    <vehicle id="veh_0102" depart="936.25" departLane="best" departSpeed="max">
        <route edges="29382500#0 681744359#1"/>
    </vehicle>
    <vehicle id="veh_0103" depart="941.65" departLane="best" departSpeed="max">
        <route edges="69024648#0 765539624#1"/>
    </vehicle>
    <vehicle id="veh_0104" depart="954.47" departLane="best" departSpeed="max">
        <route edges="29382500#0 765539624#1"/>
    </vehicle>
    <vehicle id="veh_0105" depart="962.61" departLane="best" departSpeed="max">
        <route edges="69024648#0 681744358#1"/>
    </vehicle>
    <vehicle id="veh_0106" depart="973.33" departLane="best" departSpeed="max">
        <route edges="29382500#0 681744359#1"/>
    </vehicle>
    <vehicle id="veh_0107" depart="982.60" departLane="best" departSpeed="max">
        <route edges="69024648#0 765539624#1"/>
    </vehicle>
    <vehicle id="veh_0108" depart="988.24" departLane="best" departSpeed="max">
        <route edges="29382500#0 681744358#1"/>
    </vehicle>
    <vehicle id="veh_0109" depart="1000.81" departLane="best" departSpeed="max">
        <route edges="69024648#0 765539624#1"/>
    </vehicle>
    <vehicle id="veh_0110" depart="1009.48" departLane="best" departSpeed="max">
        <route edges="69024648#0 681744358#1"/>
    </vehicle>
    <vehicle id="veh_0111" depart="1019.09" departLane="best" departSpeed="max">
        <route edges="29382500#0 681744359#1"/>
    </vehicle>
    <vehicle id="veh_0112" depart="1025.70" departLane="best" departSpeed="max">
        <route edges="29382500#0 681744359#1"/>
    </vehicle>
    <vehicle id="veh_0113" depart="1033.37" departLane="best" departSpeed="max">
        <route edges="29382500#0 681744359#1"/>
    </vehicle>
    <vehicle id="veh_0114" depart="1043.17" departLane="best" departSpeed="max">
        <route edges="29382500#0 765539624#1"/>
    </vehicle>
    <vehicle id="veh_0115" depart="1052.02" departLane="best" departSpeed="max">
        <route edges="69024648#0 765539624#1"/>
    </vehicle>
    <vehicle id="veh_0116" depart="1065.68" departLane="best" departSpeed="max">
        <route edges="8889354#0 681744359#1"/>
    </vehicle>
    <vehicle id="veh_0117" depart="1069.29" departLane="best" departSpeed="max">
        <route edges="681744366#0 681744359#1"/>
    </vehicle>
    <vehicle id="veh_0118" depart="1083.88" departLane="best" departSpeed="max">
        <route edges="69024648#0 681744358#1"/>
    </vehicle>
    <vehicle id="veh_0119" depart="1089.66" departLane="best" departSpeed="max">
        <route edges="29382500#0 765539624#1"/>
    </vehicle>
    <vehicle id="veh_0120" depart="1099.92" departLane="best" departSpeed="max">
        <route edges="8889354#0 681744359#1"/>
    </vehicle>
    <vehicle id="veh_0121" depart="1108.89" departLane="best" departSpeed="max">
        <route edges="681744366#0 90178163#1"/>
    </vehicle>
    <vehicle id="veh_0122" depart="1114.36" departLane="best" departSpeed="max">
        <route edges="29382500#0 681744358#1"/>
    </vehicle>
    <vehicle id="veh_0123" depart="1128.12" departLane="best" departSpeed="max">
        <route edges="69024648#0 681744358#1"/>
    </vehicle>
    <vehicle id="veh_0124" depart="1135.01" departLane="best" departSpeed="max">
        <route edges="8889354#0 90178163#1"/>
    </vehicle>
    <vehicle id="veh_0125" depart="1143.95" departLane="best" departSpeed="max">
        <route edges="29382500#0 681744358#1"/>
    </vehicle>
    <vehicle id="veh_0126" depart="1155.61" departLane="best" departSpeed="max">
        <route edges="29382500#0 681744359#1"/>
    </vehicle>
    <vehicle id="veh_0127" depart="1162.77" departLane="best" departSpeed="max">
        <route edges="29382500#0 765539624#1"/>
    </vehicle>
    <vehicle id="veh_0128" depart="1170.13" departLane="best" departSpeed="max">
        <route edges="681744366#0 90178163#1"/>
    </vehicle>
    <vehicle id="veh_0129" depart="1182.82" departLane="best" departSpeed="max">
        <route edges="681744366#0 681744359#1"/>
    </vehicle>
    <vehicle id="veh_0130" depart="1189.56" departLane="best" departSpeed="max">
        <route edges="69024648#0 681744358#1"/>
    </vehicle>
    <vehicle id="veh_0131" depart="1198.63" departLane="best" departSpeed="max">
        <route edges="681744366#0 90178163#1"/>
    </vehicle>
    <vehicle id="veh_0132" depart="1210.15" departLane="best" departSpeed="max">
        <route edges="681744366#0 90178163#1"/>
    </vehicle>
    <vehicle id="veh_0133" depart="1216.48" departLane="best" departSpeed="max">
        <route edges="681744366#0 90178163#1"/>
    </vehicle>
    <vehicle id="veh_0134" depart="1229.38" departLane="best" departSpeed="max">
        <route edges="681744366#0 681744359#1"/>
    </vehicle>
    <vehicle id="veh_0135" depart="1236.74" departLane="best" departSpeed="max">
        <route edges="29382500#0 765539624#1"/>
    </vehicle>
    <vehicle id="veh_0136" depart="1247.84" departLane="best" departSpeed="max">
        <route edges="8889354#0 681744359#1"/>
    </vehicle>
    <vehicle id="veh_0137" depart="1253.20" departLane="best" departSpeed="max">
        <route edges="8889354#0 90178163#1"/>
    </vehicle>
    <vehicle id="veh_0138" depart="1262.49" departLane="best" departSpeed="max">
        <route edges="29382500#0 765539624#1"/>
    </vehicle>
    <vehicle id="veh_0139" depart="1270.54" departLane="best" departSpeed="max">
        <route edges="681744366#0 681744359#1"/>
    </vehicle>
    <vehicle id="veh_0140" depart="1280.48" departLane="best" departSpeed="max">
        <route edges="681744366#0 90178163#1"/>
    </vehicle>
    <vehicle id="veh_0141" depart="1289.96" departLane="best" departSpeed="max">
        <route edges="8889354#0 681744359#1"/>
    </vehicle>
    <vehicle id="veh_0142" depart="1302.37" departLane="best" departSpeed="max">
        <route edges="8889354#0 681744359#1"/>
    </vehicle>
    <vehicle id="veh_0143" depart="1309.44" departLane="best" departSpeed="max">
        <route edges="8889354#0 681744359#1"/>
    </vehicle>
    <vehicle id="veh_0144" depart="1319.20" departLane="best" departSpeed="max">
        <route edges="29382500#0 681744359#1"/>
    </vehicle>
    <vehicle id="veh_0145" depart="1330.48" departLane="best" departSpeed="max">
        <route edges="29382500#0 765539624#1"/>
    </vehicle>
    <vehicle id="veh_0146" depart="1338.48" departLane="best" departSpeed="max">
        <route edges="681744366#0 681744358#1"/>
    </vehicle>
    <vehicle id="veh_0147" depart="1349.45" departLane="best" departSpeed="max">
        <route edges="69024648#0 681744358#1"/>
    </vehicle>
    <vehicle id="veh_0148" depart="1357.13" departLane="best" departSpeed="max">
        <route edges="69024648#0 681744358#1"/>
    </vehicle>
    <vehicle id="veh_0149" depart="1365.19" departLane="best" departSpeed="max">
        <route edges="681744366#0 681744358#1"/>
    </vehicle>
    <vehicle id="veh_0150" depart="1373.88" departLane="best" departSpeed="max">
        <route edges="69024648#0 90178163#1"/>
    </vehicle>
    <vehicle id="veh_0151" depart="1384.09" departLane="best" departSpeed="max">
        <route edges="29382500#0 765539624#1"/>
    </vehicle>
    <vehicle id="veh_0152" depart="1393.18" departLane="best" departSpeed="max">
        <route edges="8889354#0 681744359#1"/>
    </vehicle>
    <vehicle id="veh_0153" depart="1400.15" departLane="best" departSpeed="max">
        <route edges="29382500#0 765539624#1"/>
    </vehicle>
    <vehicle id="veh_0154" depart="1410.94" departLane="best" departSpeed="max">
        <route edges="29382500#0 765539624#1"/>
    </vehicle>
    <vehicle id="veh_0155" depart="1421.09" departLane="best" departSpeed="max">
        <route edges="29382500#0 765539624#1"/>
    </vehicle>
    <vehicle id="veh_0156" depart="1428.42" departLane="best" departSpeed="max">
        <route edges="8889354#0 681744359#1"/>
    </vehicle>
    <vehicle id="veh_0157" depart="1436.29" departLane="best" departSpeed="max">
        <route edges="681744366#0 90178163#1"/>
    </vehicle>
    <vehicle id="veh_0158" depart="1447.87" departLane="best" departSpeed="max">
        <route edges="681744366#0 681744359#1"/>
    </vehicle>
    <vehicle id="veh_0159" depart="1458.19" departLane="best" departSpeed="max">
        <route edges="8889354#0 765539624#1"/>
    </vehicle>
    <vehicle id="veh_0160" depart="1464.70" departLane="best" departSpeed="max">
        <route edges="681744366#0 90178163#1"/>
    </vehicle>
    <vehicle id="veh_0161" depart="1477.72" departLane="best" departSpeed="max">
        <route edges="8889354#0 765539624#1"/>
    </vehicle>
    <vehicle id="veh_0162" depart="1484.27" departLane="best" departSpeed="max">
        <route edges="681744366#0 681744358#1"/>
    </vehicle>
    <vehicle id="veh_0163" depart="1491.33" departLane="best" departSpeed="max">
        <route edges="8889354#0 681744359#1"/>
    </vehicle>
    <vehicle id="veh_0164" depart="1501.24" departLane="best" departSpeed="max">
        <route edges="681744366#0 90178163#1"/>
    </vehicle>
    <vehicle id="veh_0165" depart="1509.30" departLane="best" departSpeed="max">
        <route edges="8889354#0 681744359#1"/>
    </vehicle>
    <vehicle id="veh_0166" depart="1521.39" departLane="best" departSpeed="max">
        <route edges="681744366#0 90178163#1"/>
    </vehicle>
    <vehicle id="veh_0167" depart="1530.18" departLane="best" departSpeed="max">
        <route edges="29382500#0 765539624#1"/>
    </vehicle>
    <vehicle id="veh_0168" depart="1536.60" departLane="best" departSpeed="max">
        <route edges="29382500#0 681744358#1"/>
    </vehicle>
    <vehicle id="veh_0169" depart="1547.32" departLane="best" departSpeed="max">
        <route edges="681744366#0 90178163#1"/>
    </vehicle>
    <vehicle id="veh_0170" depart="1558.93" departLane="best" departSpeed="max">
        <route edges="29382500#0 765539624#1"/>
    </vehicle>
    <vehicle id="veh_0171" depart="1568.54" departLane="best" departSpeed="max">
        <route edges="681744366#0 681744358#1"/>
    </vehicle>
    <vehicle id="veh_0172" depart="1572.49" departLane="best" departSpeed="max">
        <route edges="29382500#0 765539624#1"/>
    </vehicle>
    <vehicle id="veh_0173" depart="1583.77" departLane="best" departSpeed="max">
        <route edges="681744366#0 681744359#1"/>
    </vehicle>
    <vehicle id="veh_0174" depart="1594.87" departLane="best" departSpeed="max">
        <route edges="8889354#0 90178163#1"/>
    </vehicle>
    <vehicle id="veh_0175" depart="1601.13" departLane="best" departSpeed="max">
        <route edges="8889354#0 765539624#1"/>
    </vehicle>
    <vehicle id="veh_0176" depart="1609.82" departLane="best" departSpeed="max">
        <route edges="29382500#0 765539624#1"/>
    </vehicle>
    <vehicle id="veh_0177" depart="1619.57" departLane="best" departSpeed="max">
        <route edges="8889354#0 681744359#1"/>
    </vehicle>
    <vehicle id="veh_0178" depart="1628.40" departLane="best" departSpeed="max">
        <route edges="8889354#0 90178163#1"/>
    </vehicle>
    <vehicle id="veh_0179" depart="1637.22" departLane="best" departSpeed="max">
        <route edges="8889354#0 90178163#1"/>
    </vehicle>
    <vehicle id="veh_0180" depart="1646.34" departLane="best" departSpeed="max">
        <route edges="69024648#0 765539624#1"/>
    </vehicle>
    <vehicle id="veh_0181" depart="1659.15" departLane="best" departSpeed="max">
        <route edges="29382500#0 765539624#1"/>
    </vehicle>
    <vehicle id="veh_0182" depart="1668.55" departLane="best" departSpeed="max">
        <route edges="69024648#0 681744358#1"/>
    </vehicle>
    <vehicle id="veh_0183" depart="1677.15" departLane="best" departSpeed="max">
        <route edges="29382500#0 681744358#1"/>
    </vehicle>
    <vehicle id="veh_0184" depart="1687.74" departLane="best" departSpeed="max">
        <route edges="29382500#0 681744358#1"/>
    </vehicle>
    <vehicle id="veh_0185" depart="1697.76" departLane="best" departSpeed="max">
        <route edges="8889354#0 681744359#1"/>
    </vehicle>
    <vehicle id="veh_0186" depart="1703.36" departLane="best" departSpeed="max">
        <route edges="8889354#0 681744359#1"/>
    </vehicle>
    <vehicle id="veh_0187" depart="1711.96" departLane="best" departSpeed="max">
        <route edges="681744366#0 90178163#1"/>
    </vehicle>
    <vehicle id="veh_0188" depart="1719.61" departLane="best" departSpeed="max">
        <route edges="69024648#0 765539624#1"/>
    </vehicle>
    <vehicle id="veh_0189" depart="1733.41" departLane="best" departSpeed="max">
        <route edges="69024648#0 90178163#1"/>
    </vehicle>
    <vehicle id="veh_0190" depart="1741.96" departLane="best" departSpeed="max">
        <route edges="8889354#0 681744359#1"/>
    </vehicle>
    <vehicle id="veh_0191" depart="1751.59" departLane="best" departSpeed="max">
        <route edges="69024648#0 681744358#1"/>
    </vehicle>
    <vehicle id="veh_0192" depart="1758.37" departLane="best" departSpeed="max">
        <route edges="681744366#0 90178163#1"/>
    </vehicle>
    <vehicle id="veh_0193" depart="1770.19" departLane="best" departSpeed="max">
        <route edges="8889354#0 681744359#1"/>
    </vehicle>
    <vehicle id="veh_0194" depart="1779.55" departLane="best" departSpeed="max">
        <route edges="69024648#0 681744358#1"/>
    </vehicle>
    <vehicle id="veh_0195" depart="1786.97" departLane="best" departSpeed="max">
        <route edges="29382500#0 765539624#1"/>
    </vehicle>
    <vehicle id="veh_0196" depart="1797.67" departLane="best" departSpeed="max">
        <route edges="681744366#0 90178163#1"/>
    </vehicle>
    <vehicle id="veh_0197" depart="1806.49" departLane="best" departSpeed="max">
        <route edges="29382500#0 765539624#1"/>
    </vehicle>
    <vehicle id="veh_0198" depart="1815.03" departLane="best" departSpeed="max">
        <route edges="681744366#0 681744359#1"/>
    </vehicle>
    <vehicle id="veh_0199" depart="1825.77" departLane="best" departSpeed="max">
        <route edges="29382500#0 765539624#1"/>
    </vehicle>
    <vehicle id="veh_0200" depart="1831.99" departLane="best" departSpeed="max">
        <route edges="29382500#0 681744358#1"/>
    </vehicle>
    <vehicle id="veh_0201" depart="1842.16" departLane="best" departSpeed="max">
        <route edges="8889354#0 90178163#1"/>
    </vehicle>
    <vehicle id="veh_0202" depart="1847.77" departLane="best" departSpeed="max">
        <route edges="681744366#0 681744358#1"/>
    </vehicle>