<?xml version='1.0' encoding='utf-8'?>
<routes xmlns:xsi="http://www.w3.org/2001/XMLSchema-instance" xsi:noNamespaceSchemaLocation="http://sumo.dlr.de/xsd/routes_file.xsd">
    <trip id="veh_0000" depart="0.00" from="8889354#0" to="681744359#1" departLane="best" departSpeed="max" />
    <trip id="veh_0001" depart="10.29" from="29382500#0" to="681744358#1" departLane="best" departSpeed="max" />
    <trip id="veh_0002" depart="17.82" from="69024648#0" to="681744358#1" departLane="best" departSpeed="max" />
    <trip id="veh_0003" depart="27.52" from="29382500#0" to="765539624#1" departLane="best" departSpeed="max" />
    <trip id="veh_0004" depart="37.60" from="29382500#0" to="765539624#1" departLane="best" departSpeed="max" />
    <trip id="veh_0005" depart="46.37" from="681744366#0" to="90178163#1" departLane="best" departSpeed="max" />
    <trip id="veh_0006" depart="56.92" from="69024648#0" to="681744358#1" departLane="best" departSpeed="max" />
    <trip id="veh_0007" depart="61.91" from="8889354#0" to="681744359#1" departLane="best" departSpeed="max" />
    <trip id="veh_0008" depart="70.67" from="69024648#0" to="681744358#1" departLane="best" departSpeed="max" />
    <trip id="veh_0009" depart="83.11" from="29382500#0" to="681744359#1" departLane="best" departSpeed="max" />
    <trip id="veh_0010" depart="91.84" from="69024648#0" to="90178163#1" departLane="best" departSpeed="max" />
    <trip id="veh_0011" depart="101.10" from="69024648#0" to="681744358#1" departLane="best" departSpeed="max" />
    <trip id="veh_0012" depart="112.24" from="69024648#0" to="681744358#1" departLane="best" departSpeed="max" />
    <trip id="veh_0013" depart="116.17" from="681744366#0" to="681744358#1" departLane="best" departSpeed="max" />
    <trip id="veh_0014" depart="125.55" from="29382500#0" to="765539624#1" departLane="best" departSpeed="max" />
    <trip id="veh_0015" depart="135.98" from="29382500#0" to="765539624#1" departLane="best" departSpeed="max" />
    <trip id="veh_0016" depart="145.73" from="8889354#0" to="681744359#1" departLane="best" departSpeed="max" />
    <trip id="veh_0017" depart="158.53" from="29382500#0" to="765539624#1" departLane="best" departSpeed="max" />
    <trip id="veh_0018" depart="162.78" from="8889354#0" to="681744359#1" departLane="best" departSpeed="max" />
    <trip id="veh_0019" depart="173.27" from="8889354#0" to="681744359#1" departLane="best" departSpeed="max" />
    <trip id="veh_0020" depart="183.57" from="69024648#0" to="90178163#1" departLane="best" departSpeed="max" />
    <trip id="veh_0021" depart="194.14" from="8889354#0" to="765539624#1" departLane="best" departSpeed="max" />
    <trip id="veh_0022" depart="200.34" from="29382500#0" to="765539624#1" departLane="best" departSpeed="max" />
    <trip id="veh_0023" depart="213.53" from="29382500#0" to="765539624#1" departLane="best" departSpeed="max" />
    <trip id="veh_0024" depart="220.84" from="69024648#0" to="681744358#1" departLane="best" departSpeed="max" />
    <trip id="veh_0025" depart="228.74" from="681744366#0" to="681744359#1" departLane="best" departSpeed="max" />
    <trip id="veh_0026" depart="238.56" from="29382500#0" to="765539624#1" departLane="best" departSpeed="max" />
    <trip id="veh_0027" depart="249.88" from="29382500#0" to="765539624#1" departLane="best" departSpeed="max" />
    <trip id="veh_0028" depart="259.68" from="681744366#0" to="90178163#1" departLane="best" departSpeed="max" />
    <trip id="veh_0029" depart="262.74" from="681744366#0" to="90178163#1" departLane="best" departSpeed="max" />
    <trip id="veh_0030" depart="276.68" from="29382500#0" to="765539624#1" departLane="best" departSpeed="max" />
    <trip id="veh_0031" depart="283.21" from="681744366#0" to="90178163#1" departLane="best" departSpeed="max" />
    <trip id="veh_0032" depart="296.15" from="69024648#0" to="681744358#1" departLane="best" departSpeed="max" />
    <trip id="veh_0033" depart="303.71" from="69024648#0" to="681744358#1" departLane="best" departSpeed="max" />
    <trip id="veh_0034" depart="309.96" from="8889354#0" to="681744359#1" departLane="best" departSpeed="max" />
    <trip id="veh_0035" depart="320.19" from="8889354#0" to="681744359#1" departLane="best" departSpeed="max" />
    <trip id="veh_0036" depart="332.18" from="681744366#0" to="681744359#1" departLane="best" departSpeed="max" />
    <trip id="veh_0037" depart="336.87" from="29382500#0" to="765539624#1" departLane="best" departSpeed="max" />
    <trip id="veh_0038" depart="346.80" from="69024648#0" to="765539624#1" departLane="best" departSpeed="max" />
    <trip id="veh_0039" depart="355.03" from="8889354#0" to="681744359#1" departLane="best" departSpeed="max" />
    <trip id="veh_0040" depart="368.20" from="8889354#0" to="681744359#1" departLane="best" departSpeed="max" />
    <trip id="veh_0041" depart="374.44" from="681744366#0" to="90178163#1" departLane="best" departSpeed="max" />
    <trip id="veh_0042" depart="387.16" from="29382500#0" to="681744359#1" departLane="best" departSpeed="max" />
    <trip id="veh_0043" depart="391.06" from="69024648#0" to="681744358#1" departLane="best" departSpeed="max" />
    <trip id="veh_0044" depart="400.40" from="69024648#0" to="765539624#1" departLane="best" departSpeed="max" />
    <trip id="veh_0045" depart="413.88" from="681744366#0" to="90178163#1" departLane="best" departSpeed="max" />
    <trip id="veh_0046" depart="421.22" from="8889354#0" to="681744359#1" departLane="best" departSpeed="max" />
    <trip id="veh_0047" depart="432.92" from="681744366#0" to="90178163#1" departLane="best" departSpeed="max" />
    <trip id="veh_0048" depart="439.95" from="681744366#0" to="90178163#1" departLane="best" departSpeed="max" />
    <trip id="veh_0049" depart="447.65" from="8889354#0" to="681744359#1" departLane="best" departSpeed="max" />
    <trip id="veh_0050" depart="457.62" from="69024648#0" to="90178163#1" departLane="best" departSpeed="max" />
    <trip id="veh_0051" depart="465.41" from="681744366#0" to="90178163#1" departLane="best" departSpeed="max" />
    <trip id="veh_0052" depart="474.61" from="681744366#0" to="90178163#1" departLane="best" departSpeed="max" />
    <trip id="veh_0053" depart="486.34" from="29382500#0" to="765539624#1" departLane="best" departSpeed="max" />
    <trip id="veh_0054" depart="496.96" from="29382500#0" to="681744359#1" departLane="best" departSpeed="max" />
    <trip id="veh_0055" depart="504.90" from="29382500#0" to="765539624#1" departLane="best" departSpeed="max" />
    <trip id="veh_0056" depart="515.77" from="29382500#0" to="765539624#1" departLane="best" departSpeed="max" />
    <trip id="veh_0057" depart="523.96" from="681744366#0" to="90178163#1" departLane="best" departSpeed="max" />
    <trip id="veh_0058" depart="528.71" from="69024648#0" to="681744358#1" departLane="best" departSpeed="max" />
    <trip id="veh_0059" depart="540.25" from="681744366#0" to="90178163#1" departLane="best" departSpeed="max" />
    <trip id="veh_0060" depart="552.72" from="8889354#0" to="90178163#1" departLane="best" departSpeed="max" />
    <trip id="veh_0061" depart="557.75" from="29382500#0" to="765539624#1" departLane="best" departSpeed="max" />
    <trip id="veh_0062" depart="565.95" from="69024648#0" to="681744358#1" departLane="best" departSpeed="max" />
    <trip id="veh_0063" depart="575.68" from="681744366#0" to="90178163#1" departLane="best" departSpeed="max" />
    <trip id="veh_0064" depart="585.89" from="29382500#0" to="681744359#1" departLane="best" departSpeed="max" />
    <trip id="veh_0065" depart="592.54" from="69024648#0" to="681744358#1" departLane="best" departSpeed="max" />
    <trip id="veh_0066" depart="607.59" from="69024648#0" to="765539624#1" departLane="best" departSpeed="max" />
    <trip id="veh_0067" depart="611.60" from="69024648#0" to="765539624#1" departLane="best" departSpeed="max" />
    <trip id="veh_0068" depart="622.27" from="681744366#0" to="90178163#1" departLane="best" departSpeed="max" />
    <trip id="veh_0069" depart="635.17" from="29382500#0" to="765539624#1" departLane="best" departSpeed="max" />
    <trip id="veh_0070" depart="640.93" from="29382500#0" to="681744358#1" departLane="best" departSpeed="max" />
    <trip id="veh_0071" depart="653.56" from="681744366#0" to="681744359#1" departLane="best" departSpeed="max" />
    <trip id="veh_0072" depart="657.33" from="681744366#0" to="681744358#1" departLane="best" departSpeed="max" />
    <trip id="veh_0073" depart="669.21" from="29382500#0" to="681744359#1" departLane="best" departSpeed="max" />
    <trip id="veh_0074" depart="675.02" from="681744366#0" to="681744358#1" departLane="best" departSpeed="max" />
    <trip id="veh_0075" depart="689.28" from="681744366#0" to="90178163#1" departLane="best" departSpeed="max" />
    <trip id="veh_0076" depart="693.49" from="29382500#0" to="681744359#1" departLane="best" departSpeed="max" />
    <trip id="veh_0077" depart="706.47" from="29382500#0" to="765539624#1" departLane="best" departSpeed="max" />
    <trip id="veh_0078" depart="717.01" from="29382500#0" to="765539624#1" departLane="best" departSpeed="max" />
    <trip id="veh_0079" depart="724.43" from="29382500#0" to="765539624#1" departLane="best" departSpeed="max" />
    <trip id="veh_0080" depart="732.97" from="681744366#0" to="90178163#1" departLane="best" departSpeed="max" />
    <trip id="veh_0081" depart="743.37" from="69024648#0" to="681744358#1" departLane="best" departSpeed="max" />
    <trip id="veh_0082" depart="752.25" from="29382500#0" to="765539624#1" departLane="best" departSpeed="max" />
    <trip id="veh_0083" depart="761.92" from="29382500#0" to="765539624#1" departLane="best" departSpeed="max" />
    <trip id="veh_0084" depart="772.66" from="29382500#0" to="765539624#1" departLane="best" departSpeed="max" />
    <trip id="veh_0085" depart="776.79" from="69024648#0" to="681744358#1" departLane="best" departSpeed="max" />
    <trip id="veh_0086" depart="790.23" from="29382500#0" to="681744359#1" departLane="best" departSpeed="max" />
    <trip id="veh_0087" depart="794.75" from="69024648#0" to="681744358#1" departLane="best" departSpeed="max" />
    <trip id="veh_0088" depart="806.82" from="69024648#0" to="90178163#1" departLane="best" departSpeed="max" />
    <trip id="veh_0089" depart="812.11" from="69024648#0" to="90178163#1" departLane="best" departSpeed="max" />
    <trip id="veh_0090" depart="825.48" from="69024648#0" to="681744358#1" departLane="best" departSpeed="max" />
    <trip id="veh_0091" depart="831.12" from="69024648#0" to="681744358#1" departLane="best" departSpeed="max" />
    <trip id="veh_0092" depart="841.29" from="29382500#0" to="765539624#1" departLane="best" departSpeed="max" />
    <trip id="veh_0093" depart="850.01" from="8889354#0" to="90178163#1" departLane="best" departSpeed="max" />
    <trip id="veh_0094" depart="861.00" from="8889354#0" to="681744359#1" departLane="best" departSpeed="max" />
    <trip id="veh_0095" depart="867.61" from="69024648#0" to="765539624#1" departLane="best" departSpeed="max" />
    <trip id="veh_0096" depart="876.21" from="681744366#0" to="90178163#1" departLane="best" departSpeed="max" />
    <trip id="veh_0097" depart="887.02" from="8889354#0" to="90178163#1" departLane="best" departSpeed="max" />
    <trip id="veh_0098" depart="897.25" from="8889354#0" to="681744359#1" departLane="best" departSpeed="max" />
    <trip id="veh_0099" depart="909.33" from="29382500#0" to="765539624#1" departLane="best" departSpeed="max" />
    <trip id="veh_0100" depart="918.18" from="69024648#0" to="681744358#1" departLane="best" departSpeed="max" />
    <trip id="veh_0101" depart="922.80" from="681744366#0" to="90178163#1" departLane="best" departSpeed="max" />
    <trip id="veh_0102" depart="936.25" from="29382500#0" to="681744359#1" departLane="best" departSpeed="max" />
    <trip id="veh_0103" depart="941.65" from="69024648#0" to="765539624#1" departLane="best" departSpeed="max" />
    <trip id="veh_0104" depart="954.47" from="29382500#0" to="765539624#1" departLane="best" departSpeed="max" />
    <trip id="veh_0105" depart="962.61" from="69024648#0" to="681744358#1" departLane="best" departSpeed="max" />
    <trip id="veh_0106" depart="973.33" from="29382500#0" to="681744359#1" departLane="best" departSpeed="max" />
    <trip id="veh_0107" depart="982.60" from="69024648#0" to="765539624#1" departLane="best" departSpeed="max" />
    <trip id="veh_0108" depart="988.24" from="29382500#0" to="681744358#1" departLane="best" departSpeed="max" />
    <trip id="veh_0109" depart="1000.81" from="69024648#0" to="765539624#1" departLane="best" departSpeed="max" />
    <trip id="veh_0110" depart="1009.48" from="69024648#0" to="681744358#1" departLane="best" departSpeed="max" />
    <trip id="veh_0111" depart="1019.09" from="29382500#0" to="681744359#1" departLane="best" departSpeed="max" />
    <trip id="veh_0112" depart="1025.70" from="29382500#0" to="681744359#1" departLane="best" departSpeed="max" />
    <trip id="veh_0113" depart="1033.37" from="29382500#0" to="681744359#1" departLane="best" departSpeed="max" />
    <trip id="veh_0114" depart="1043.17" from="29382500#0" to="765539624#1" departLane="best" departSpeed="max" />
    <trip id="veh_0115" depart="1052.02" from="69024648#0" to="765539624#1" departLane="best" departSpeed="max" />
    <trip id="veh_0116" depart="1065.68" from="8889354#0" to="681744359#1" departLane="best" departSpeed="max" />
    <trip id="veh_0117" depart="1069.29" from="681744366#0" to="681744359#1" departLane="best" departSpeed="max" />
    <trip id="veh_0118" depart="1083.88" from="69024648#0" to="681744358#1" departLane="best" departSpeed="max" />
    <trip id="veh_0119" depart="1089.66" from="29382500#0" to="765539624#1" departLane="best" departSpeed="max" />
    <trip id="veh_0120" depart="1099.92" from="8889354#0" to="681744359#1" departLane="best" departSpeed="max" />
    <trip id="veh_0121" depart="1108.89" from="681744366#0" to="90178163#1" departLane="best" departSpeed="max" />
    <trip id="veh_0122" depart="1114.36" from="29382500#0" to="681744358#1" departLane="best" departSpeed="max" />
    <trip id="veh_0123" depart="1128.12" from="69024648#0" to="681744358#1" departLane="best" departSpeed="max" />
    <trip id="veh_0124" depart="1135.01" from="8889354#0" to="90178163#1" departLane="best" departSpeed="max" />
    <trip id="veh_0125" depart="1143.95" from="29382500#0" to="681744358#1" departLane="best" departSpeed="max" />
    <trip id="veh_0126" depart="1155.61" from="29382500#0" to="681744359#1" departLane="best" departSpeed="max" />
    <trip id="veh_0127" depart="1162.77" from="29382500#0" to="765539624#1" departLane="best" departSpeed="max" />
    <trip id="veh_0128" depart="1170.13" from="681744366#0" to="90178163#1" departLane="best" departSpeed="max" />
    <trip id="veh_0129" depart="1182.82" from="681744366#0" to="681744359#1" departLane="best" departSpeed="max" />
    <trip id="veh_0130" depart="1189.56" from="69024648#0" to="681744358#1" departLane="best" departSpeed="max" />
    <trip id="veh_0131" depart="1198.63" from="681744366#0" to="90178163#1" departLane="best" departSpeed="max" />
    <trip id="veh_0132" depart="1210.15" from="681744366#0" to="90178163#1" departLane="best" departSpeed="max" />
    <trip id="veh_0133" depart="1216.48" from="681744366#0" to="90178163#1" departLane="best" departSpeed="max" />
    <trip id="veh_0134" depart="1229.38" from="681744366#0" to="681744359#1" departLane="best" departSpeed="max" />
    <trip id="veh_0135" depart="1236.74" from="29382500#0" to="765539624#1" departLane="best" departSpeed="max" />
    <trip id="veh_0136" depart="1247.84" from="8889354#0" to="681744359#1" departLane="best" departSpeed="max" />
    <trip id="veh_0137" depart="1253.20" from="8889354#0" to="90178163#1" departLane="best" departSpeed="max" />
    <trip id="veh_0138" depart="1262.49" from="29382500#0" to="765539624#1" departLane="best" departSpeed="max" />
    <trip id="veh_0139" depart="1270.54" from="681744366#0" to="681744359#1" departLane="best" departSpeed="max" />
    <trip id="veh_0140" depart="1280.48" from="681744366#0" to="90178163#1" departLane="best" departSpeed="max" />
    <trip id="veh_0141" depart="1289.96" from="8889354#0" to="681744359#1" departLane="best" departSpeed="max" />
    <trip id="veh_0142" depart="1302.37" from="8889354#0" to="681744359#1" departLane="best" departSpeed="max" />
    <trip id="veh_0143" depart="1309.44" from="8889354#0" to="681744359#1" departLane="best" departSpeed="max" />
    <trip id="veh_0144" depart="1319.20" from="29382500#0" to="681744359#1" departLane="best" departSpeed="max" />
    <trip id="veh_0145" depart="1330.48" from="29382500#0" to="765539624#1" departLane="best" departSpeed="max" />
    <trip id="veh_0146" depart="1338.48" from="681744366#0" to="681744358#1" departLane="best" departSpeed="max" />
    <trip id="veh_0147" depart="1349.45" from="69024648#0" to="681744358#1" departLane="best" departSpeed="max" />
    <trip id="veh_0148" depart="1357.13" from="69024648#0" to="681744358#1" departLane="best" departSpeed="max" />
    <trip id="veh_0149" depart="1365.19" from="681744366#0" to="681744358#1" departLane="best" departSpeed="max" />
    <trip id="veh_0150" depart="1373.88" from="69024648#0" to="90178163#1" departLane="best" departSpeed="max" />
    <trip id="veh_0151" depart="1384.09" from="29382500#0" to="765539624#1" departLane="best" departSpeed="max" />
    <trip id="veh_0152" depart="1393.18" from="8889354#0" to="681744359#1" departLane="best" departSpeed="max" />
    <trip id="veh_0153" depart="1400.15" from="29382500#0" to="765539624#1" departLane="best" departSpeed="max" />
    <trip id="veh_0154" depart="1410.94" from="29382500#0" to="765539624#1" departLane="best" departSpeed="max" />
    <trip id="veh_0155" depart="1421.09" from="29382500#0" to="765539624#1" departLane="best" departSpeed="max" />
    <trip id="veh_0156" depart="1428.42" from="8889354#0" to="681744359#1" departLane="best" departSpeed="max" />
    <trip id="veh_0157" depart="1436.29" from="681744366#0" to="90178163#1" departLane="best" departSpeed="max" />
    <trip id="veh_0158" depart="1447.87" from="681744366#0" to="681744359#1" departLane="best" departSpeed="max" />
    <trip id="veh_0159" depart="1458.19" from="8889354#0" to="765539624#1" departLane="best" departSpeed="max" />
    <trip id="veh_0160" depart="1464.70" from="681744366#0" to="90178163#1" departLane="best" departSpeed="max" />
    <trip id="veh_0161" depart="1477.72" from="8889354#0" to="765539624#1" departLane="best" departSpeed="max" />
    <trip id="veh_0162" depart="1484.27" from="681744366#0" to="681744358#1" departLane="best" departSpeed="max" />
    <trip id="veh_0163" depart="1491.33" from="8889354#0" to="681744359#1" departLane="best" departSpeed="max" />
    <trip id="veh_0164" depart="1501.24" from="681744366#0" to="90178163#1" departLane="best" departSpeed="max" />
    <trip id="veh_0165" depart="1509.30" from="8889354#0" to="681744359#1" departLane="best" departSpeed="max" />
    <trip id="veh_0166" depart="1521.39" from="681744366#0" to="90178163#1" departLane="best" departSpeed="max" />
    <trip id="veh_0167" depart="1530.18" from="29382500#0" to="765539624#1" departLane="best" departSpeed="max" />
    <trip id="veh_0168" depart="1536.60" from="29382500#0" to="681744358#1" departLane="best" departSpeed="max" />
    <trip id="veh_0169" depart="1547.32" from="681744366#0" to="90178163#1" departLane="best" departSpeed="max" />
    <trip id="veh_0170" depart="1558.93" from="29382500#0" to="765539624#1" departLane="best" departSpeed="max" />
    <trip id="veh_0171" depart="1568.54" from="681744366#0" to="681744358#1" departLane="best" departSpeed="max" />
    <trip id="veh_0172" depart="1572.49" from="29382500#0" to="765539624#1" departLane="best" departSpeed="max" />
    <trip id="veh_0173" depart="1583.77" from="681744366#0" to="681744359#1" departLane="best" departSpeed="max" />
    <trip id="veh_0174" depart="1594.87" from="8889354#0" to="90178163#1" departLane="best" departSpeed="max" />
    <trip id="veh_0175" depart="1601.13" from="8889354#0" to="765539624#1" departLane="best" departSpeed="max" />
    <trip id="veh_0176" depart="1609.82" from="29382500#0" to="765539624#1" departLane="best" departSpeed="max" />
    <trip id="veh_0177" depart="1619.57" from="8889354#0" to="681744359#1" departLane="best" departSpeed="max" />
    <trip id="veh_0178" depart="1628.40" from="8889354#0" to="90178163#1" departLane="best" departSpeed="max" />
    <trip id="veh_0179" depart="1637.22" from="8889354#0" to="90178163#1" departLane="best" departSpeed="max" />
    <trip id="veh_0180" depart="1646.34" from="69024648#0" to="765539624#1" departLane="best" departSpeed="max" />
    <trip id="veh_0181" depart="1659.15" from="29382500#0" to="765539624#1" departLane="best" departSpeed="max" />
    <trip id="veh_0182" depart="1668.55" from="69024648#0" to="681744358#1" departLane="best" departSpeed="max" />
    <trip id="veh_0183" depart="1677.15" from="29382500#0" to="681744358#1" departLane="best" departSpeed="max" />
    <trip id="veh_0184" depart="1687.74" from="29382500#0" to="681744358#1" departLane="best" departSpeed="max" />
    <trip id="veh_0185" depart="1697.76" from="8889354#0" to="681744359#1" departLane="best" departSpeed="max" />
    <trip id="veh_0186" depart="1703.36" from="8889354#0" to="681744359#1" departLane="best" departSpeed="max" />
    <trip id="veh_0187" depart="1711.96" from="681744366#0" to="90178163#1" departLane="best" departSpeed="max" />
    <trip id="veh_0188" depart="1719.61" from="69024648#0" to="765539624#1" departLane="best" departSpeed="max" />
    <trip id="veh_0189" depart="1733.41" from="69024648#0" to="90178163#1" departLane="best" departSpeed="max" />
    <trip id="veh_0190" depart="1741.96" from="8889354#0" to="681744359#1" departLane="best" departSpeed="max" />
    <trip id="veh_0191" depart="1751.59" from="69024648#0" to="681744358#1" departLane="best" departSpeed="max" />
    <trip id="veh_0192" depart="1758.37" from="681744366#0" to="90178163#1" departLane="best" departSpeed="max" />
    <trip id="veh_0193" depart="1770.19" from="8889354#0" to="681744359#1" departLane="best" departSpeed="max" />
    <trip id="veh_0194" depart="1779.55" from="69024648#0" to="681744358#1" departLane="best" departSpeed="max" />
    <trip id="veh_0195" depart="1786.97" from="29382500#0" to="765539624#1" departLane="best" departSpeed="max" />
    <trip id="veh_0196" depart="1797.67" from="681744366#0" to="90178163#1" departLane="best" departSpeed="max" />
    <trip id="veh_0197" depart="1806.49" from="29382500#0" to="765539624#1" departLane="best" departSpeed="max" />
    <trip id="veh_0198" depart="1815.03" from="681744366#0" to="681744359#1" departLane="best" departSpeed="max" />
    <trip id="veh_0199" depart="1825.77" from="29382500#0" to="765539624#1" departLane="best" departSpeed="max" />
    <trip id="veh_0200" depart="1831.99" from="29382500#0" to="681744358#1" departLane="best" departSpeed="max" />
    <trip id="veh_0201" depart="1842.16" from="8889354#0" to="90178163#1" departLane="best" departSpeed="max" />
    <trip id="veh_0202" depart="1847.77" from="681744366#0" to="681744358#1" departLane="best" departSpeed="max" />
    <trip id="veh_0203" depart="1858.30" from="29382500#0" to="681744358#1" departLane="best" departSpeed="max" />
    <trip id="veh_0204" depart="1868.90" from="681744366#0" to="90178163#1" departLane="best" departSpeed="max" />
    <trip id="veh_0205" depart="1876.78" from="681744366#0" to="681744358#1" departLane="best" departSpeed="max" />
    <trip id="veh_0206" depart="1885.43" from="8889354#0" to="681744359#1" departLane="best" departSpeed="max" />
    <trip id="veh_0207" depart="1893.74" from="29382500#0" to="765539624#1" departLane="best" departSpeed="max" />
    <trip id="veh_0208" depart="1903.32" from="681744366#0" to="681744358#1" departLane="best" departSpeed="max" />
    <trip id="veh_0209" depart="1915.94" from="29382500#0" to="765539624#1" departLane="best" departSpeed="max" />
    <trip id="veh_0210" depart="1922.27" from="69024648#0" to="681744358#1" departLane="best" departSpeed="max" />
    <trip id="veh_0211" depart="1931.08" from="29382500#0" to="765539624#1" departLane="best" departSpeed="max" />
    <trip id="veh_0212" depart="1942.20" from="29382500#0" to="765539624#1" departLane="best" departSpeed="max" />
    <trip id="veh_0213" depart="1951.49" from="29382500#0" to="681744359#1" departLane="best" departSpeed="max" />
    <trip id="veh_0214" depart="1962.67" from="8889354#0" to="681744359#1" departLane="best" departSpeed="max" />
    <trip id="veh_0215" depart="1969.94" from="681744366#0" to="681744359#1" departLane="best" departSpeed="max" />
    <trip id="veh_0216" depart="1976.60" from="681744366#0" to="90178163#1" departLane="best" departSpeed="max" />
    <trip id="veh_0217" depart="1987.64" from="29382500#0" to="681744359#1" departLane="best" departSpeed="max" />
    <trip id="veh_0218" depart="1994.22" from="69024648#0" to="681744358#1" departLane="best" departSpeed="max" />
    <trip id="veh_0219" depart="2003.86" from="8889354#0" to="681744359#1" departLane="best" departSpeed="max" />
    <trip id="veh_0220" depart="2018.43" from="681744366#0" to="90178163#1" departLane="best" departSpeed="max" />
    <trip id="veh_0221" depart="2025.11" from="29382500#0" to="681744358#1" departLane="best" departSpeed="max" />
    <trip id="veh_0222" depart="2033.73" from="8889354#0" to="681744359#1" departLane="best" departSpeed="max" />
    <trip id="veh_0223" depart="2045.06" from="681744366#0" to="90178163#1" departLane="best" departSpeed="max" />
    <trip id="veh_0224" depart="2052.68" from="69024648#0" to="681744358#1" departLane="best" departSpeed="max" />
    <trip id="veh_0225" depart="2063.94" from="8889354#0" to="90178163#1" departLane="best" departSpeed="max" />
    <trip id="veh_0226" depart="2071.26" from="29382500#0" to="765539624#1" departLane="best" departSpeed="max" />
    <trip id="veh_0227" depart="2076.66" from="29382500#0" to="765539624#1" departLane="best" departSpeed="max" />
    <trip id="veh_0228" depart="2089.15" from="29382500#0" to="765539624#1" departLane="best" departSpeed="max" />
    <trip id="veh_0229" depart="2099.04" from="29382500#0" to="765539624#1" departLane="best" departSpeed="max" />
    <trip id="veh_0230" depart="2108.07" from="8889354#0" to="681744359#1" departLane="best" departSpeed="max" />
    <trip id="veh_0231" depart="2116.83" from="69024648#0" to="90178163#1" departLane="best" departSpeed="max" />
    <trip id="veh_0232" depart="2124.71" from="8889354#0" to="765539624#1" departLane="best" departSpeed="max" />
    <trip id="veh_0233" depart="2136.97" from="681744366#0" to="681744358#1" departLane="best" departSpeed="max" />
    <trip id="veh_0234" depart="2141.37" from="69024648#0" to="681744358#1" departLane="best" departSpeed="max" />
    <trip id="veh_0235" depart="2153.12" from="29382500#0" to="681744358#1" departLane="best" departSpeed="max" />
    <trip id="veh_0236" depart="2163.04" from="29382500#0" to="765539624#1" departLane="best" departSpeed="max" />
    <trip id="veh_0237" depart="2171.00" from="8889354#0" to="765539624#1" departLane="best" departSpeed="max" />
    <trip id="veh_0238" depart="2177.20" from="681744366#0" to="90178163#1" departLane="best" departSpeed="max" />
    <trip id="veh_0239" depart="2187.71" from="681744366#0" to="90178163#1" departLane="best" departSpeed="max" />
    <trip id="veh_0240" depart="2200.63" from="29382500#0" to="681744359#1" departLane="best" departSpeed="max" />
    <trip id="veh_0241" depart="2210.84" from="681744366#0" to="681744359#1" departLane="best" departSpeed="max" />
    <trip id="veh_0242" depart="2213.85" from="8889354#0" to="681744359#1" departLane="best" departSpeed="max" />
    <trip id="veh_0243" depart="2226.93" from="8889354#0" to="681744359#1" departLane="best" departSpeed="max" />
    <trip id="veh_0244" depart="2235.66" from="69024648#0" to="681744358#1" departLane="best" departSpeed="max" />
    <trip id="veh_0245" depart="2241.65" from="8889354#0" to="681744359#1" departLane="best" departSpeed="max" />
    <trip id="veh_0246" depart="2254.53" from="681744366#0" to="90178163#1" departLane="best" departSpeed="max" />
    <trip id="veh_0247" depart="2263.84" from="69024648#0" to="681744358#1" departLane="best" departSpeed="max" />
    <trip id="veh_0248" depart="2273.77" from="29382500#0" to="681744359#1" departLane="best" departSpeed="max" />
    <trip id="veh_0249" depart="2279.73" from="681744366#0" to="90178163#1" departLane="best" departSpeed="max" />
    <trip id="veh_0250" depart="2289.46" from="681744366#0" to="681744359#1" departLane="best" departSpeed="max" />
    <trip id="veh_0251" depart="2300.25" from="681744366#0" to="681744359#1" departLane="best" departSpeed="max" />
    <trip id="veh_0252" depart="2306.39" from="681744366#0" to="90178163#1" departLane="best" departSpeed="max" />
    <trip id="veh_0253" depart="2318.36" from="681744366#0" to="681744358#1" departLane="best" departSpeed="max" />
    <trip id="veh_0254" depart="2327.03" from="8889354#0" to="681744359#1" departLane="best" departSpeed="max" />
    <trip id="veh_0255" depart="2337.15" from="69024648#0" to="681744358#1" departLane="best" departSpeed="max" />
    <trip id="veh_0256" depart="2345.74" from="29382500#0" to="681744359#1" departLane="best" departSpeed="max" />
    <trip id="veh_0257" depart="2354.52" from="29382500#0" to="765539624#1" departLane="best" departSpeed="max" />
    <trip id="veh_0258" depart="2366.52" from="681744366#0" to="90178163#1" departLane="best" departSpeed="max" />
    <trip id="veh_0259" depart="2370.07" from="69024648#0" to="681744358#1" departLane="best" departSpeed="max" />