<?xml version="1.0" encoding="UTF-8"?>

<!-- generated on 2026-04-17T16:01:55.402131-05:00 by Eclipse SUMO netconvert 1.26.0
<netconvertConfiguration xmlns:xsi="http://www.w3.org/2001/XMLSchema-instance" xsi:noNamespaceSchemaLocation="http://sumo.dlr.de/xsd/netconvertConfiguration.xsd">

    <input>
        <osm-files value="d:\Ahmed_Data\TTE\Project\aalborg_intersection.osm"/>
    </input>

    <output>
        <output-file value="sumo_network.net.xml"/>
    </output>

    <projection>
        <proj.utm value="true"/>
    </projection>

    <processing>
        <geometry.remove value="true"/>
        <roundabouts.guess value="true"/>
    </processing>

    <tls_building>
        <tls.discard-simple value="true"/>
        <tls.join value="true"/>
        <tls.guess-signals value="true"/>
    </tls_building>

    <ramp_guessing>
        <ramps.guess value="true"/>
    </ramp_guessing>

    <junctions>
        <junctions.join value="true"/>
    </junctions>

</netconvertConfiguration>
-->

<net version="1.20" junctionCornerDetail="5" limitTurnSpeed="5.50" xmlns:xsi="http://www.w3.org/2001/XMLSchema-instance" xsi:noNamespaceSchemaLocation="http://sumo.dlr.de/xsd/net_file.xsd">

    <location netOffset="-557283.41,-6321379.23" convBoundary="0.00,0.00,1008.62,392.75" origBoundary="9.943820,57.032222,9.960495,57.035733" projParameter="+proj=utm +zone=32 +ellps=WGS84 +datum=WGS84 +units=m +no_defs"/>

    <type id="highway.footway" priority="1" numLanes="1" speed="2.78" allow="pedestrian" oneway="1" width="2.00"/>
    <type id="highway.living_street" priority="2" numLanes="1" speed="2.78" disallow="tram rail_urban rail rail_electric rail_fast ship container cable_car subway aircraft wheelchair scooter drone" oneway="0"/>
    <type id="highway.path" priority="1" numLanes="1" speed="5.56" allow="pedestrian bicycle" oneway="0" width="2.00"/>
    <type id="highway.residential" priority="3" numLanes="1" speed="13.89" disallow="tram rail_urban rail rail_electric rail_fast ship container cable_car subway aircraft wheelchair scooter drone" oneway="0"/>
    <type id="highway.service" priority="1" numLanes="1" speed="5.56" allow="pedestrian delivery bicycle" oneway="0"/>
    <type id="highway.steps" priority="1" numLanes="1" speed="1.39" allow="pedestrian" oneway="1" width="2.00"/>
    <type id="highway.tertiary" priority="10" numLanes="1" speed="22.22" disallow="tram rail_urban rail rail_electric rail_fast ship container cable_car subway aircraft wheelchair scooter drone" oneway="0"/>

    <edge id=":10037554910_0" function="internal">
        <lane id=":10037554910_0_0" index="0" allow="pedestrian bicycle" speed="5.08" length="4.76" width="2.00" shape="724.93,194.75 723.86,194.80 722.97,195.30 722.29,196.26 721.79,197.67"/>
    </edge>
    <edge id=":10037554910_1" function="internal">
        <lane id=":10037554910_1_0" index="0" disallow="tram rail_urban rail rail_electric rail_fast ship container cable_car subway aircraft wheelchair scooter drone" speed="13.89" length="5.70" shape="724.93,194.75 719.29,193.88"/>
    </edge>
    <edge id=":10037554910_2" function="internal">
        <lane id=":10037554910_2_0" index="0" allow="pedestrian bicycle" speed="4.16" length="3.70" width="2.00" shape="719.84,197.19 720.10,195.82 720.09,194.81 719.82,194.17 719.29,193.88"/>
    </edge>
    <edge id=":10037554910_3" function="internal">
        <lane id=":10037554910_3_0" index="0" allow="pedestrian bicycle" speed="2.89" length="2.92" width="2.00" shape="719.84,197.19 720.51,196.58 721.05,196.46 721.48,196.82 721.79,197.67"/>
    </edge>
    <edge id=":1031808318_0" function="internal">
        <lane id=":1031808318_0_0" index="0" disallow="tram rail_urban rail rail_electric rail_fast ship container cable_car subway aircraft wheelchair scooter drone" speed="3.65" length="4.67" shape="467.88,54.17 466.96,53.06 466.81,52.18 467.42,51.53 468.80,51.11"/>
    </edge>
    <edge id=":1264694009_0" function="internal">
        <lane id=":1264694009_0_0" index="0" allow="pedestrian bicycle" speed="6.18" length="9.28" width="2.00" shape="720.36,217.82 723.21,218.47 725.07,219.65 725.93,221.36 725.80,223.60"/>
    </edge>
    <edge id=":1264694009_1" function="internal">
        <lane id=":1264694009_1_0" index="0" allow="pedestrian bicycle" speed="2.89" length="2.92" width="2.00" shape="720.36,217.82 721.05,218.41 721.24,218.93 720.93,219.40 720.13,219.81"/>
    </edge>
    <edge id=":1264694009_2" function="internal">
        <lane id=":1264694009_2_0" index="0" allow="pedestrian bicycle" speed="4.70" length="4.64" width="2.00" shape="722.70,222.82 722.79,221.64 722.39,220.75 721.50,220.14 720.13,219.81"/>
    </edge>
    <edge id=":1264694009_3" function="internal">
        <lane id=":1264694009_3_0" index="0" disallow="tram rail_urban rail rail_electric rail_fast ship container cable_car subway aircraft wheelchair scooter drone" speed="3.65" length="4.67" shape="722.70,222.82 723.77,221.85 724.64,221.66 725.32,222.24 725.80,223.60"/>
    </edge>
    <edge id=":28783695_0" function="internal">
        <lane id=":28783695_0_0" index="0" disallow="tram rail_urban rail rail_electric rail_fast ship container cable_car subway aircraft wheelchair scooter drone" speed="13.89" length="7.99" shape="625.89,211.42 623.66,219.09"/>
    </edge>
    <edge id=":28783695_1" function="internal">
        <lane id=":28783695_1_0" index="0" disallow="tram rail_urban rail rail_electric rail_fast ship container cable_car subway aircraft wheelchair scooter drone" speed="13.89" length="8.39" shape="620.57,218.26 620.73,215.76 620.08,213.99 619.43,212.22 619.60,209.71"/>
        <lane id=":28783695_1_1" index="1" disallow="tram rail_urban rail rail_electric rail_fast ship container cable_car subway aircraft wheelchair scooter drone" speed="13.89" length="8.39" shape="620.57,218.26 622.69,210.55"/>
    </edge>
    <edge id=":28784623_0" function="internal">
        <lane id=":28784623_0_0" index="0" disallow="tram rail_urban rail rail_electric rail_fast ship container cable_car subway aircraft wheelchair scooter drone" speed="13.89" length="8.23" shape="647.08,126.23 646.84,128.66 647.46,130.39 648.12,132.13 648.00,134.58"/>
        <lane id=":28784623_0_1" index="1" disallow="tram rail_urban rail rail_electric rail_fast ship container cable_car subway aircraft wheelchair scooter drone" speed="13.89" length="8.23" shape="647.08,126.23 644.90,133.80"/>
    </edge>
    <edge id=":28784623_2" function="internal">
        <lane id=":28784623_2_0" index="0" disallow="tram rail_urban rail rail_electric rail_fast ship container cable_car subway aircraft wheelchair scooter drone" speed="13.89" length="8.05" shape="641.67,132.98 644.02,125.28"/>
    </edge>
    <edge id=":2931542877_0" function="internal">
        <lane id=":2931542877_0_0" index="0" disallow="tram rail_urban rail rail_electric rail_fast ship container cable_car subway aircraft wheelchair scooter drone" speed="3.65" length="4.67" shape="-0.23,65.09 -1.30,64.13 -1.58,63.28 -1.07,62.54 0.23,61.93"/>
    </edge>
    <edge id=":333768996_0" function="internal">
        <lane id=":333768996_0_0" index="0" disallow="tram rail_urban rail rail_electric rail_fast ship container cable_car subway aircraft wheelchair scooter drone" speed="13.89" length="6.94" shape="719.10,193.85 717.07,193.79 715.67,194.13 714.27,194.47 712.24,194.41"/>
        <lane id=":333768996_0_1" index="1" disallow="tram rail_urban rail rail_electric rail_fast ship container cable_car subway aircraft wheelchair scooter drone" speed="13.89" length="6.94" shape="719.10,193.85 717.15,193.30 715.91,192.55 714.68,191.80 712.73,191.25"/>
    </edge>
    <edge id=":4559022333_0" function="internal">
        <lane id=":4559022333_0_0" index="0" allow="pedestrian delivery bicycle" speed="3.65" length="4.67" shape="547.71,124.61 546.60,125.52 545.71,125.67 545.06,125.05 544.65,123.67"/>
    </edge>
    <edge id=":4559022334_0" function="internal">
        <lane id=":4559022334_0_0" index="0" allow="pedestrian delivery bicycle" speed="5.07" length="5.02" shape="563.58,83.10 562.23,82.91 561.13,83.20 560.29,83.97 559.71,85.23"/>
    </edge>
    <edge id=":4559022334_1" function="internal">
        <lane id=":4559022334_1_0" index="0" disallow="tram rail_urban rail rail_electric rail_fast ship container cable_car subway aircraft wheelchair scooter drone" speed="13.89" length="9.38" shape="563.58,83.10 554.58,80.43"/>
    </edge>
    <edge id=":4559022334_2" function="internal">
        <lane id=":4559022334_2_0" index="0" disallow="tram rail_urban rail rail_electric rail_fast ship container cable_car subway aircraft wheelchair scooter drone" speed="13.89" length="9.35" shape="555.51,77.36 564.47,80.03"/>
    </edge>
    <edge id=":4559022334_3" function="internal">
        <lane id=":4559022334_3_0" index="0" allow="pedestrian delivery bicycle" speed="6.86" length="3.24" shape="555.51,77.36 558.04,78.54 558.34,78.87"/>
    </edge>
    <edge id=":4559022334_7" function="internal">
        <lane id=":4559022334_7_0" index="0" allow="pedestrian delivery bicycle" speed="6.86" length="6.93" shape="558.34,78.87 559.58,80.24 560.14,82.47 559.71,85.23"/>
    </edge>
    <edge id=":4559022334_4" function="internal">
        <lane id=":4559022334_4_0" index="0" allow="pedestrian delivery bicycle" speed="5.04" length="5.00" shape="556.65,84.29 556.86,82.94 556.58,81.84 555.83,81.01 554.58,80.43"/>
    </edge>
    <edge id=":4559022334_5" function="internal">
        <lane id=":4559022334_5_0" index="0" allow="pedestrian delivery bicycle" speed="6.88" length="10.14" shape="556.65,84.29 557.82,81.77 559.52,80.22 561.74,79.64 564.47,80.03"/>
    </edge>
    <edge id=":4559022334_6" function="internal">
        <lane id=":4559022334_6_0" index="0" allow="pedestrian delivery bicycle" speed="3.65" length="4.67" shape="556.65,84.29 557.76,83.38 558.64,83.23 559.29,83.85 559.71,85.23"/>
    </edge>
    <edge id=":4630233273_0" function="internal">
        <lane id=":4630233273_0_0" index="0" disallow="tram rail_urban rail rail_electric rail_fast ship container cable_car subway aircraft wheelchair scooter drone" speed="2.78" length="4.67" shape="692.26,142.84 691.34,141.73 691.18,140.85 691.80,140.20 693.18,139.78"/>
    </edge>
    <edge id=":4630233277_0" function="internal">
        <lane id=":4630233277_0_0" index="0" disallow="tram rail_urban rail rail_electric rail_fast ship container cable_car subway aircraft wheelchair scooter drone" speed="2.78" length="4.67" shape="763.25,-0.50 764.39,-1.39 765.27,-1.52 765.91,-0.89 766.29,0.50"/>
    </edge>
    <edge id=":6382052499_0" function="internal">
        <lane id=":6382052499_0_0" index="0" disallow="tram rail_urban rail rail_electric rail_fast ship container cable_car subway aircraft wheelchair scooter drone" speed="3.65" length="4.67" shape="676.57,23.89 677.70,22.99 678.58,22.86 679.22,23.48 679.61,24.87"/>
    </edge>
    <edge id=":6384416086_0" function="internal">
        <lane id=":6384416086_0_0" index="0" disallow="tram rail_urban rail rail_electric rail_fast ship container cable_car subway aircraft wheelchair scooter drone" speed="13.89" length="5.03" shape="676.27,175.65 681.18,176.69"/>
        <lane id=":6384416086_0_1" index="1" disallow="tram rail_urban rail rail_electric rail_fast ship container cable_car subway aircraft wheelchair scooter drone" speed="13.89" length="5.03" shape="675.59,178.77 680.53,179.82"/>
    </edge>
    <edge id=":6384416106_0" function="internal">
        <lane id=":6384416106_0_0" index="0" disallow="tram rail_urban rail rail_electric rail_fast ship container cable_car subway aircraft wheelchair scooter drone" speed="13.89" length="8.14" shape="687.88,190.20 685.46,189.99 683.78,190.21 682.09,190.40 679.70,190.11"/>
        <lane id=":6384416106_0_1" index="1" disallow="tram rail_urban rail rail_electric rail_fast ship container cable_car subway aircraft wheelchair scooter drone" speed="13.89" length="8.14" shape="688.48,187.06 686.10,186.85 684.43,187.08 682.77,187.28 680.41,186.99"/>
        <lane id=":6384416106_0_2" index="2" disallow="tram rail_urban rail rail_electric rail_fast ship container cable_car subway aircraft wheelchair scooter drone" speed="13.89" length="8.14" shape="688.48,187.06 686.22,186.37 684.79,185.52 683.37,184.64 681.12,183.88"/>
    </edge>
    <edge id=":6384416109_0" function="internal">
        <lane id=":6384416109_0_0" index="0" disallow="tram rail_urban rail rail_electric rail_fast ship container cable_car subway aircraft wheelchair scooter drone" speed="13.89" length="7.84" shape="590.84,154.26 593.14,154.46 594.74,154.23 596.34,153.99 598.63,154.20"/>
        <lane id=":6384416109_0_1" index="1" disallow="tram rail_urban rail rail_electric rail_fast ship container cable_car subway aircraft wheelchair scooter drone" speed="13.89" length="7.84" shape="590.21,157.39 592.50,157.60 594.11,157.36 595.71,157.12 598.00,157.33"/>
        <lane id=":6384416109_0_2" index="2" disallow="tram rail_urban rail rail_electric rail_fast ship container cable_car subway aircraft wheelchair scooter drone" speed="13.89" length="7.84" shape="590.21,157.39 592.40,158.09 593.79,158.93 595.18,159.77 597.37,160.47"/>
    </edge>
    <edge id=":6384416110_0" function="internal">
        <lane id=":6384416110_0_0" index="0" disallow="tram rail_urban rail rail_electric rail_fast ship container cable_car subway aircraft wheelchair scooter drone" speed="13.89" length="7.32" shape="583.31,153.98 585.38,154.36 586.86,154.22 588.35,154.00 590.47,154.18"/>
        <lane id=":6384416110_0_1" index="1" disallow="tram rail_urban rail rail_electric rail_fast ship container cable_car subway aircraft wheelchair scooter drone" speed="13.89" length="7.32" shape="583.31,153.98 585.30,154.86 586.54,155.79 587.80,156.65 589.84,157.32"/>
    </edge>
    <edge id=":6384416111_0" function="internal">
        <lane id=":6384416111_0_0" index="0" disallow="tram rail_urban rail rail_electric rail_fast ship container cable_car subway aircraft wheelchair scooter drone" speed="13.89" length="0.10" shape="570.97,153.48 570.93,153.48"/>
    </edge>
    <edge id=":6384416111_1" function="internal">
        <lane id=":6384416111_1_0" index="0" disallow="tram rail_urban rail rail_electric rail_fast ship container cable_car subway aircraft wheelchair scooter drone" speed="13.89" length="0.10" shape="571.81,150.40 571.91,150.43"/>
    </edge>
    <edge id=":64936766_0" function="internal">
        <lane id=":64936766_0_0" index="0" disallow="tram rail_urban rail rail_electric rail_fast ship container cable_car subway aircraft wheelchair scooter drone" speed="13.89" length="14.31" shape="617.72,241.31 614.16,255.17"/>
    </edge>
    <edge id=":64936766_1" function="internal">
        <lane id=":64936766_1_0" index="0" disallow="tram rail_urban rail rail_electric rail_fast ship container cable_car subway aircraft wheelchair scooter drone" speed="7.96" length="3.92" shape="617.72,241.31 616.18,244.92"/>
    </edge>
    <edge id=":64936766_2" function="internal">
        <lane id=":64936766_2_0" index="0" disallow="tram rail_urban rail rail_electric rail_fast ship container cable_car subway aircraft wheelchair scooter drone" speed="3.65" length="1.44" shape="617.72,241.31 616.64,242.26"/>
    </edge>
    <edge id=":64936766_9" function="internal">
        <lane id=":64936766_9_0" index="0" disallow="tram rail_urban rail rail_electric rail_fast ship container cable_car subway aircraft wheelchair scooter drone" speed="7.96" length="10.35" shape="616.18,244.92 613.86,247.14 610.76,247.98 606.87,247.43"/>
    </edge>
    <edge id=":64936766_10" function="internal">
        <lane id=":64936766_10_0" index="0" disallow="tram rail_urban rail rail_electric rail_fast ship container cable_car subway aircraft wheelchair scooter drone" speed="3.65" length="3.23" shape="616.64,242.26 615.76,242.44 615.09,241.85 614.63,240.49"/>
    </edge>
    <edge id=":64936766_3" function="internal">
        <lane id=":64936766_3_0" index="0" disallow="tram rail_urban rail rail_electric rail_fast ship container cable_car subway aircraft wheelchair scooter drone" speed="6.46" length="9.03" shape="607.76,244.36 610.22,244.71 612.19,244.18 613.66,242.77 614.63,240.49"/>
    </edge>
    <edge id=":64936766_4" function="internal">
        <lane id=":64936766_4_0" index="0" disallow="tram rail_urban rail rail_electric rail_fast ship container cable_car subway aircraft wheelchair scooter drone" speed="8.12" length="14.20" shape="607.76,244.36 611.34,245.96 613.59,248.29 614.53,251.36 614.16,255.17"/>
    </edge>
    <edge id=":64936766_5" function="internal">
        <lane id=":64936766_5_0" index="0" disallow="tram rail_urban rail rail_electric rail_fast ship container cable_car subway aircraft wheelchair scooter drone" speed="3.65" length="4.67" shape="607.76,244.36 608.69,245.46 608.86,246.34 608.25,247.00 606.87,247.43"/>
    </edge>
    <edge id=":64936766_6" function="internal">
        <lane id=":64936766_6_0" index="0" disallow="tram rail_urban rail rail_electric rail_fast ship container cable_car subway aircraft wheelchair scooter drone" speed="6.65" length="9.19" shape="611.05,254.41 611.29,251.95 610.67,249.97 609.20,248.47 606.87,247.43"/>
    </edge>
    <edge id=":64936766_7" function="internal">
        <lane id=":64936766_7_0" index="0" disallow="tram rail_urban rail rail_electric rail_fast ship container cable_car subway aircraft wheelchair scooter drone" speed="13.89" length="14.37" shape="611.05,254.41 614.63,240.49"/>
    </edge>
    <edge id=":64936766_8" function="internal">
        <lane id=":64936766_8_0" index="0" disallow="tram rail_urban rail rail_electric rail_fast ship container cable_car subway aircraft wheelchair scooter drone" speed="3.65" length="1.44" shape="611.05,254.41 612.12,253.43"/>
    </edge>
    <edge id=":64936766_11" function="internal">
        <lane id=":64936766_11_0" index="0" disallow="tram rail_urban rail rail_electric rail_fast ship container cable_car subway aircraft wheelchair scooter drone" speed="3.65" length="3.23" shape="612.12,253.43 612.99,253.23 613.67,253.81 614.16,255.17"/>
    </edge>
    <edge id=":64936769_0" function="internal">
        <lane id=":64936769_0_0" index="0" disallow="tram rail_urban rail rail_electric rail_fast ship container cable_car subway aircraft wheelchair scooter drone" speed="3.65" length="4.67" shape="594.49,334.82 593.43,335.79 592.55,335.98 591.87,335.40 591.39,334.04"/>
    </edge>
    <edge id=":77936582_0" function="internal">
        <lane id=":77936582_0_0" index="0" disallow="tram rail_urban rail rail_electric rail_fast ship container cable_car subway aircraft wheelchair scooter drone" speed="3.65" length="4.67" shape="677.70,354.93 676.61,355.87 675.73,356.04 675.07,355.44 674.62,354.07"/>
    </edge>
    <edge id=":84863652_0" function="internal">
        <lane id=":84863652_0_0" index="0" disallow="tram rail_urban rail rail_electric rail_fast ship container cable_car subway aircraft wheelchair scooter drone" speed="3.65" length="4.67" shape="389.51,174.49 388.80,173.23 388.80,172.34 389.52,171.80 390.95,171.63"/>
    </edge>
    <edge id=":9637457696_0" function="internal">
        <lane id=":9637457696_0_0" index="0" disallow="tram rail_urban rail rail_electric rail_fast ship container cable_car subway aircraft wheelchair scooter drone" speed="13.89" length="9.41" shape="661.76,80.13 658.86,89.08"/>
    </edge>
    <edge id=":9637457696_1" function="internal">
        <lane id=":9637457696_1_0" index="0" allow="pedestrian delivery bicycle" speed="6.84" length="3.29" shape="661.76,80.13 660.52,82.67 660.17,82.97"/>
    </edge>
    <edge id=":9637457696_7" function="internal">
        <lane id=":9637457696_7_0" index="0" allow="pedestrian delivery bicycle" speed="6.84" length="7.00" shape="660.17,82.97 658.77,84.18 656.50,84.66 653.73,84.11"/>
    </edge>
    <edge id=":9637457696_2" function="internal">
        <lane id=":9637457696_2_0" index="0" allow="pedestrian delivery bicycle" speed="5.01" length="5.03" shape="654.79,81.09 656.15,81.36 657.25,81.13 658.11,80.39 658.72,79.15"/>
    </edge>
    <edge id=":9637457696_3" function="internal">
        <lane id=":9637457696_3_0" index="0" allow="pedestrian delivery bicycle" speed="6.93" length="10.17" shape="654.79,81.09 657.29,82.38 658.80,84.14 659.32,86.38 658.86,89.08"/>
    </edge>
    <edge id=":9637457696_4" function="internal">
        <lane id=":9637457696_4_0" index="0" allow="pedestrian delivery bicycle" speed="3.65" length="4.67" shape="654.79,81.09 655.66,82.25 655.77,83.13 655.13,83.76 653.73,84.11"/>
    </edge>
    <edge id=":9637457696_5" function="internal">
        <lane id=":9637457696_5_0" index="0" allow="pedestrian delivery bicycle" speed="5.12" length="5.10" shape="655.82,88.09 656.04,86.75 655.77,85.64 655.00,84.76 653.73,84.11"/>
    </edge>
    <edge id=":9637457696_6" function="internal">
        <lane id=":9637457696_6_0" index="0" disallow="tram rail_urban rail rail_electric rail_fast ship container cable_car subway aircraft wheelchair scooter drone" speed="13.89" length="9.40" shape="655.82,88.09 658.72,79.15"/>
    </edge>
    <edge id=":9637457697_0" function="internal">
        <lane id=":9637457697_0_0" index="0" allow="pedestrian delivery bicycle" speed="3.65" length="4.67" shape="637.00,78.23 636.13,77.08 636.02,76.19 636.66,75.57 638.06,75.21"/>
    </edge>
    <edge id=":9637457698_0" function="internal">
        <lane id=":9637457698_0_0" index="0" allow="pedestrian delivery bicycle" speed="5.09" length="5.06" shape="599.64,93.61 598.29,93.42 597.19,93.72 596.35,94.51 595.75,95.78"/>
    </edge>
    <edge id=":9637457698_1" function="internal">
        <lane id=":9637457698_1_0" index="0" disallow="tram rail_urban rail rail_electric rail_fast ship container cable_car subway aircraft wheelchair scooter drone" speed="13.89" length="9.40" shape="599.64,93.61 590.61,90.98"/>
    </edge>
    <edge id=":9637457698_2" function="internal">
        <lane id=":9637457698_2_0" index="0" disallow="tram rail_urban rail rail_electric rail_fast ship container cable_car subway aircraft wheelchair scooter drone" speed="13.89" length="9.40" shape="591.51,87.91 600.54,90.54"/>
    </edge>
    <edge id=":9637457698_3" function="internal">
        <lane id=":9637457698_3_0" index="0" allow="pedestrian delivery bicycle" speed="6.85" length="3.28" shape="591.51,87.91 594.07,89.07 594.39,89.41"/>
    </edge>
    <edge id=":9637457698_7" function="internal">
        <lane id=":9637457698_7_0" index="0" allow="pedestrian delivery bicycle" speed="6.85" length="6.96" shape="594.39,89.41 595.63,90.76 596.19,93.00 595.75,95.78"/>
    </edge>
    <edge id=":9637457698_4" function="internal">
        <lane id=":9637457698_4_0" index="0" allow="pedestrian delivery bicycle" speed="5.02" length="5.02" shape="592.70,94.84 592.91,93.48 592.63,92.38 591.87,91.55 590.61,90.98"/>
    </edge>
    <edge id=":9637457698_5" function="internal">
        <lane id=":9637457698_5_0" index="0" allow="pedestrian delivery bicycle" speed="6.90" length="10.16" shape="592.70,94.84 593.88,92.30 595.58,90.74 597.80,90.15 600.54,90.54"/>
    </edge>
    <edge id=":9637457698_6" function="internal">
        <lane id=":9637457698_6_0" index="0" allow="pedestrian delivery bicycle" speed="3.65" length="4.67" shape="592.70,94.84 593.81,93.93 594.70,93.78 595.34,94.40 595.75,95.78"/>
    </edge>
    <edge id=":9637457699_0" function="internal">
        <lane id=":9637457699_0_0" index="0" allow="pedestrian delivery bicycle" speed="3.65" length="4.67" shape="589.67,115.58 588.55,116.49 587.67,116.64 587.02,116.02 586.61,114.64"/>
    </edge>
    <edge id=":9637457701_0" function="internal">
        <lane id=":9637457701_0_0" index="0" allow="pedestrian delivery bicycle" speed="3.65" length="4.67" shape="696.85,110.28 697.82,111.35 698.01,112.22 697.43,112.90 696.07,113.38"/>
    </edge>
    <edge id=":cluster_1031808285_9637457702_0" function="internal">
        <lane id=":cluster_1031808285_9637457702_0_0" index="0" allow="pedestrian delivery bicycle" speed="7.98" length="13.54" shape="657.72,103.67 656.02,104.02 654.29,105.93 652.54,109.40 650.75,114.43"/>
    </edge>
    <edge id=":cluster_1031808285_9637457702_1" function="internal">
        <lane id=":cluster_1031808285_9637457702_1_0" index="0" allow="pedestrian delivery bicycle" speed="9.72" length="14.29" shape="657.72,103.67 654.20,103.79 650.82,105.16 647.45,106.50 643.96,106.53"/>
    </edge>
    <edge id=":cluster_1031808285_9637457702_2" function="internal">
        <lane id=":cluster_1031808285_9637457702_2_0" index="0" allow="pedestrian delivery bicycle" speed="6.81" length="10.49" shape="657.72,103.67 655.04,102.56 653.42,100.87 652.85,98.60 653.34,95.74"/>
    </edge>
    <edge id=":cluster_1031808285_9637457702_3" function="internal">
        <lane id=":cluster_1031808285_9637457702_3_0" index="0" allow="pedestrian delivery bicycle" speed="3.65" length="4.67" shape="657.72,103.67 656.75,102.60 656.56,101.72 657.15,101.05 658.51,100.57"/>
    </edge>
    <edge id=":cluster_1031808285_9637457702_4" function="internal">
        <lane id=":cluster_1031808285_9637457702_4_0" index="0" allow="pedestrian delivery bicycle" speed="4.97" length="5.08" shape="656.39,96.73 656.15,98.11 656.42,99.21 657.21,100.03 658.51,100.57"/>
    </edge>
    <edge id=":cluster_1031808285_9637457702_5" function="internal">
        <lane id=":cluster_1031808285_9637457702_5_0" index="0" disallow="tram rail_urban rail rail_electric rail_fast ship container cable_car subway aircraft wheelchair scooter drone" speed="13.89" length="18.58" shape="656.39,96.73 650.75,114.43"/>
    </edge>
    <edge id=":cluster_1031808285_9637457702_6" function="internal">
        <lane id=":cluster_1031808285_9637457702_6_0" index="0" disallow="tram rail_urban rail rail_electric rail_fast ship container cable_car subway aircraft wheelchair scooter drone" speed="8.98" length="2.21" shape="656.39,96.73 655.51,98.75"/>
    </edge>
    <edge id=":cluster_1031808285_9637457702_7" function="internal">
        <lane id=":cluster_1031808285_9637457702_7_0" index="0" disallow="tram rail_urban rail rail_electric rail_fast ship container cable_car subway aircraft wheelchair scooter drone" speed="3.65" length="1.44" shape="656.39,96.73 655.26,97.62"/>
    </edge>
    <edge id=":cluster_1031808285_9637457702_16" function="internal">
        <lane id=":cluster_1031808285_9637457702_16_0" index="0" disallow="tram rail_urban rail rail_electric rail_fast ship container cable_car subway aircraft wheelchair scooter drone" speed="8.98" length="15.55" shape="655.51,98.75 654.12,101.94 651.29,105.32 647.91,106.84 643.96,106.53"/>
    </edge>
    <edge id=":cluster_1031808285_9637457702_17" function="internal">
        <lane id=":cluster_1031808285_9637457702_17_0" index="0" disallow="tram rail_urban rail rail_electric rail_fast ship container cable_car subway aircraft wheelchair scooter drone" speed="3.65" length="3.23" shape="655.26,97.62 654.37,97.76 653.73,97.13 653.34,95.74"/>
    </edge>
    <edge id=":cluster_1031808285_9637457702_8" function="internal">
        <lane id=":cluster_1031808285_9637457702_8_0" index="0" disallow="tram rail_urban rail rail_electric rail_fast ship container cable_car subway aircraft wheelchair scooter drone" speed="7.69" length="12.76" shape="644.86,103.46 647.44,103.58 649.71,102.33 651.68,99.72 653.34,95.74"/>
    </edge>
    <edge id=":cluster_1031808285_9637457702_9" function="internal">
        <lane id=":cluster_1031808285_9637457702_9_0" index="0" allow="pedestrian delivery bicycle" speed="9.72" length="14.19" shape="644.86,103.46 648.33,103.43 651.66,102.08 655.00,100.70 658.51,100.57"/>
    </edge>
    <edge id=":cluster_1031808285_9637457702_10" function="internal">
        <lane id=":cluster_1031808285_9637457702_10_0" index="0" disallow="tram rail_urban rail rail_electric rail_fast ship container cable_car subway aircraft wheelchair scooter drone" speed="7.97" length="14.26" shape="644.86,103.46 648.42,105.08 650.59,107.45 651.37,110.57 650.75,114.43"/>
    </edge>
    <edge id=":cluster_1031808285_9637457702_11" function="internal">
        <lane id=":cluster_1031808285_9637457702_11_0" index="0" disallow="tram rail_urban rail rail_electric rail_fast ship container cable_car subway aircraft wheelchair scooter drone" speed="3.65" length="4.67" shape="644.86,103.46 645.78,104.56 645.94,105.44 645.33,106.10 643.96,106.53"/>
    </edge>
    <edge id=":cluster_1031808285_9637457702_12" function="internal">
        <lane id=":cluster_1031808285_9637457702_12_0" index="0" disallow="tram rail_urban rail rail_electric rail_fast ship container cable_car subway aircraft wheelchair scooter drone" speed="6.47" length="9.03" shape="647.69,113.48 648.08,111.03 647.59,109.06 646.22,107.56 643.96,106.53"/>
    </edge>
    <edge id=":cluster_1031808285_9637457702_13" function="internal">
        <lane id=":cluster_1031808285_9637457702_13_0" index="0" disallow="tram rail_urban rail rail_electric rail_fast ship container cable_car subway aircraft wheelchair scooter drone" speed="13.89" length="18.62" shape="647.69,113.48 653.34,95.74"/>
    </edge>
    <edge id=":cluster_1031808285_9637457702_14" function="internal">
        <lane id=":cluster_1031808285_9637457702_14_0" index="0" allow="pedestrian delivery bicycle" speed="9.01" length="7.71" shape="647.69,113.48 649.64,109.09 651.24,106.67"/>
    </edge>
    <edge id=":cluster_1031808285_9637457702_15" function="internal">
        <lane id=":cluster_1031808285_9637457702_15_0" index="0" disallow="tram rail_urban rail rail_electric rail_fast ship container cable_car subway aircraft wheelchair scooter drone" speed="3.65" length="1.44" shape="647.69,113.48 648.81,112.57"/>
    </edge>
    <edge id=":cluster_1031808285_9637457702_18" function="internal">